@<TRIPOS>MOLECULE
L1196P_Tamnorzatinib_Rep1.pdb
68 73 1 0 0
SMALL
NO_CHARGES


@<TRIPOS>ATOM
      1 O         -20.2620    6.9960   -7.5300 O.2       1 UNL    0.0000
      2 N         -19.1810    8.9910   -6.8990 N.am      1 UNL    0.0000
      3 C         -20.2240    8.2180   -7.3940 C.2       1 UNL    0.0000
      4 H         -19.3020    9.9970   -6.8280 H         1 UNL    0.0000
      5 C         -17.9190    8.5450   -6.4380 C.ar      1 UNL    0.0000
      6 N         -17.2730    7.5920   -7.1470 N.ar      1 UNL    0.0000
      7 C         -16.0720    7.1980   -6.6690 C.ar      1 UNL    0.0000
      8 C         -15.4870    7.7110   -5.5220 C.ar      1 UNL    0.0000
      9 C         -16.1810    8.6900   -4.8200 C.ar      1 UNL    0.0000
     10 C         -17.4210    9.1210   -5.2800 C.ar      1 UNL    0.0000
     11 O         -14.2760    7.2730   -5.0990 O.3       1 UNL    0.0000
     12 C         -13.2950    8.2200   -4.8450 C.ar      1 UNL    0.0000
     13 C         -12.8400    9.0920   -5.8430 C.ar      1 UNL    0.0000
     14 C         -11.8400   10.0270   -5.5020 C.ar      1 UNL    0.0000
     15 C         -13.3550    9.0480   -7.1490 C.ar      1 UNL    0.0000
     16 N         -11.3250   10.0960   -4.2610 N.ar      1 UNL    0.0000
     17 C         -11.3880   10.8930   -6.4950 C.ar      1 UNL    0.0000
     18 C         -11.7920    9.2370   -3.3260 C.ar      1 UNL    0.0000
     19 C         -12.7670    8.2890   -3.5640 C.ar      1 UNL    0.0000
     20 C         -11.9010   10.8490   -7.7930 C.ar      1 UNL    0.0000
     21 C         -12.8860    9.9260   -8.1210 C.ar      1 UNL    0.0000
     22 O         -11.4250   11.7170   -8.7300 O.3       1 UNL    0.0000
     23 C         -11.0940   13.0310   -8.2850 C.3       1 UNL    0.0000
     24 O         -13.3960    9.8710   -9.3830 O.3       1 UNL    0.0000
     25 C         -14.4810   10.7490   -9.6820 C.3       1 UNL    0.0000
     26 C         -21.3830    9.0310   -7.7760 C.2       1 UNL    0.0000
     27 C         -22.5890    8.4730   -7.6400 C.2       1 UNL    0.0000
     28 C         -23.7930    9.1970   -7.9710 C.2       1 UNL    0.0000
     29 C         -23.7260   10.4580   -8.4510 C.2       1 UNL    0.0000
     30 C         -25.1190    8.5240   -7.7650 C.2       1 UNL    0.0000
     31 N         -22.4670   11.0740   -8.6550 N.am      1 UNL    0.0000
     32 C         -24.9870   11.2740   -8.6740 C.3       1 UNL    0.0000
     33 C         -21.2590   10.4130   -8.3210 C.2       1 UNL    0.0000
     34 O         -20.1270   10.8700   -8.4860 O.2       1 UNL    0.0000
     35 C         -26.1760   10.7680   -7.8640 C.3       1 UNL    0.0000
     36 C         -26.3790    9.2870   -8.0960 C.3       1 UNL    0.0000
     37 O         -25.1860    7.3550   -7.3830 O.2       1 UNL    0.0000
     38 C         -22.3280   12.3810   -9.2480 C.ar      1 UNL    0.0000
     39 C         -21.6550   13.3910   -8.5610 C.ar      1 UNL    0.0000
     40 C         -21.5200   14.6550   -9.1340 C.ar      1 UNL    0.0000
     41 C         -22.0590   14.9090  -10.3960 C.ar      1 UNL    0.0000
     42 C         -22.7320   13.8990  -11.0840 C.ar      1 UNL    0.0000
     43 C         -22.8660   12.6360  -10.5100 C.ar      1 UNL    0.0000
     44 HC        -15.5348    6.4363   -7.2145 H         1 UNL    0.0000
     45 HC1       -15.7590    9.1143   -3.9209 H         1 UNL    0.0000
     46 HC2       -17.9780    9.8805   -4.7515 H         1 UNL    0.0000
     47 HC3       -14.1199    8.3281   -7.4003 H         1 UNL    0.0000
     48 HC4       -10.6223   11.6159   -6.2552 H         1 UNL    0.0000
     49 HC5       -11.3760    9.2966   -2.3311 H         1 UNL    0.0000
     50 HC6       -13.1061    7.6258   -2.7820 H         1 UNL    0.0000
     51 HC7       -22.6647    7.4594   -7.2749 H         1 UNL    0.0000
     52 HC8       -24.7870   12.3068   -8.3888 H         1 UNL    0.0000
     53 HC9       -25.2435   11.2441   -9.7330 H         1 UNL    0.0000
     54 HC10      -25.9895   10.9434   -6.8045 H         1 UNL    0.0000
     55 HC11      -27.0740   11.3069   -8.1663 H         1 UNL    0.0000
     56 HC12      -26.6357    9.1195   -9.1420 H         1 UNL    0.0000
     57 HC13      -27.1925    8.9312   -7.4638 H         1 UNL    0.0000
     58 HC14      -21.2381   13.1940   -7.5844 H         1 UNL    0.0000
     59 HC15      -20.9987   15.4368   -8.6016 H         1 UNL    0.0000
     60 HC16      -21.9551   15.8879  -10.8402 H         1 UNL    0.0000
     61 HC17      -23.1489   14.0957  -12.0607 H         1 UNL    0.0000
     62 HC18      -23.3868   11.8539  -11.0425 H         1 UNL    0.0000
     63 HC19      -11.0308   13.7005   -9.1428 H         1 UNL    0.0000
     64 HC20      -10.1335   13.0088   -7.7703 H         1 UNL    0.0000
     65 HC21      -11.8644   13.3879   -7.6014 H         1 UNL    0.0000
     66 HC22      -14.7915   10.6044  -10.7168 H         1 UNL    0.0000
     67 HC23      -15.3177   10.5315   -9.0181 H         1 UNL    0.0000
     68 HC24      -14.1627   11.7817   -9.5391 H         1 UNL    0.0000
@<TRIPOS>BOND
     1     1     3    2
     2     2     3   am
     3     2     4    1
     4     2     5    1
     5     3    26    1
     6     5     6   ar
     7     5    10   ar
     8     6     7   ar
     9     7     8   ar
    10     7    44    1
    11     8     9   ar
    12     8    11    1
    13     9    10   ar
    14     9    45    1
    15    10    46    1
    16    11    12    1
    17    12    13   ar
    18    12    19   ar
    19    13    14   ar
    20    13    15   ar
    21    14    16   ar
    22    14    17   ar
    23    15    21   ar
    24    15    47    1
    25    16    18   ar
    26    17    20   ar
    27    17    48    1
    28    18    19   ar
    29    18    49    1
    30    19    50    1
    31    20    21   ar
    32    20    22    1
    33    21    24    1
    34    22    23    1
    35    23    63    1
    36    23    64    1
    37    23    65    1
    38    24    25    1
    39    25    66    1
    40    25    67    1
    41    25    68    1
    42    26    27    2
    43    26    33    1
    44    27    28    2
    45    27    51    1
    46    28    29    2
    47    28    30    2
    48    29    31    1
    49    29    32    1
    50    30    36    1
    51    30    37    2
    52    31    33   am
    53    31    38    1
    54    32    35    1
    55    32    52    1
    56    32    53    1
    57    33    34    2
    58    35    36    1
    59    35    54    1
    60    35    55    1
    61    36    56    1
    62    36    57    1
    63    38    39   ar
    64    38    43   ar
    65    39    40   ar
    66    39    58    1
    67    40    41   ar
    68    40    59    1
    69    41    42   ar
    70    41    60    1
    71    42    43   ar
    72    42    61    1
    73    43    62    1
