#

@<TRIPOS>MOLECULE
tmp2.pdb
 68 73 0 0 0
SMALL
GASTEIGER

@<TRIPOS>ATOM
      1 O         -20.2620    6.9960   -7.5300 O.2       1 LIG        -0.2696
      2 N         -19.1810    8.9910   -6.8990 N.am      1 LIG        -0.2662
      3 C         -20.2240    8.2180   -7.3940 C.2       1 LIG         0.2546
      4 H         -19.3020    9.9970   -6.8280 H         1 LIG         0.1566
      5 C1        -17.9190    8.5450   -6.4380 C.ar      1 LIG         0.1253
      6 N1        -17.2730    7.5920   -7.1470 N.ar      1 LIG        -0.2365
      7 C2        -16.0720    7.1980   -6.6690 C.ar      1 LIG         0.0719
      8 C3        -15.4870    7.7110   -5.5220 C.ar      1 LIG         0.1466
      9 C4        -16.1810    8.6900   -4.8200 C.ar      1 LIG        -0.0146
     10 C5        -17.4210    9.1210   -5.2800 C.ar      1 LIG        -0.0180
     11 O1        -14.2760    7.2730   -5.0990 O.3       1 LIG        -0.4538
     12 C6        -13.2950    8.2200   -4.8450 C.ar      1 LIG         0.1392
     13 C7        -12.8400    9.0920   -5.8430 C.ar      1 LIG         0.0463
     14 C8        -11.8400   10.0270   -5.5020 C.ar      1 LIG         0.0782
     15 C9        -13.3550    9.0480   -7.1490 C.ar      1 LIG        -0.0036
     16 N2        -11.3250   10.0960   -4.2610 N.ar      1 LIG        -0.2546
     17 C10       -11.3880   10.8930   -6.4950 C.ar      1 LIG         0.0098
     18 C11       -11.7920    9.2370   -3.3260 C.ar      1 LIG         0.0318
     19 C12       -12.7670    8.2890   -3.5640 C.ar      1 LIG        -0.0006
     20 C13       -11.9010   10.8490   -7.7930 C.ar      1 LIG         0.1635
     21 C14       -12.8860    9.9260   -8.1210 C.ar      1 LIG         0.1623
     22 O2        -11.4250   11.7170   -8.7300 O.3       1 LIG        -0.4914
     23 C15       -11.0940   13.0310   -8.2850 C.3       1 LIG         0.0790
     24 O3        -13.3960    9.8710   -9.3830 O.3       1 LIG        -0.4914
     25 C16       -14.4810   10.7490   -9.6820 C.3       1 LIG         0.0790
     26 C17       -21.3830    9.0310   -7.7760 C.2       1 LIG         0.1024
     27 C18       -22.5890    8.4730   -7.6400 C.2       1 LIG        -0.0322
     28 C19       -23.7930    9.1970   -7.9710 C.2       1 LIG         0.0380
     29 C20       -23.7260   10.4580   -8.4510 C.2       1 LIG         0.0376
     30 C21       -25.1190    8.5240   -7.7650 C.2       1 LIG         0.1649
     31 N3        -22.4670   11.0740   -8.6550 N.am      1 LIG        -0.2799
     32 C22       -24.9870   11.2740   -8.6740 C.3       1 LIG        -0.0108
     33 C23       -21.2590   10.4130   -8.3210 C.2       1 LIG         0.2682
     34 O4        -20.1270   10.8700   -8.4860 O.2       1 LIG        -0.2665
     35 C24       -26.1760   10.7680   -7.8640 C.3       1 LIG        -0.0407
     36 C25       -26.3790    9.2870   -8.0960 C.3       1 LIG         0.0109
     37 O5        -25.1860    7.3550   -7.3830 O.2       1 LIG        -0.2920
     38 C26       -22.3280   12.3810   -9.2480 C.ar      1 LIG         0.0498
     39 C27       -21.6550   13.3910   -8.5610 C.ar      1 LIG        -0.0377
     40 C28       -21.5200   14.6550   -9.1340 C.ar      1 LIG        -0.0598
     41 C29       -22.0590   14.9090  -10.3960 C.ar      1 LIG        -0.0616
     42 C30       -22.7320   13.8990  -11.0840 C.ar      1 LIG        -0.0598
     43 C31       -22.8660   12.6360  -10.5100 C.ar      1 LIG        -0.0377
     44 HC        -15.5350    6.4360   -7.2150 H         1 LIG         0.0868
     45 HC1       -15.7590    9.1140   -3.9210 H         1 LIG         0.0656
     46 HC2       -17.9780    9.8800   -4.7520 H         1 LIG         0.0653
     47 HC3       -14.1200    8.3280   -7.4000 H         1 LIG         0.0663
     48 HC4       -10.6220   11.6160   -6.2550 H         1 LIG         0.0677
     49 HC5       -11.3760    9.2970   -2.3310 H         1 LIG         0.0831
     50 HC6       -13.1060    7.6260   -2.7820 H         1 LIG         0.0670
     51 HC7       -22.6650    7.4590   -7.2750 H         1 LIG         0.0634
     52 HC8       -24.7870   12.3070   -8.3890 H         1 LIG         0.0328
     53 HC9       -25.2440   11.2440   -9.7330 H         1 LIG         0.0328
     54 HC10      -25.9890   10.9430   -6.8040 H         1 LIG         0.0273
     55 HC11      -27.0740   11.3070   -8.1660 H         1 LIG         0.0273
     56 HC12      -26.6360    9.1200   -9.1420 H         1 LIG         0.0345
     57 HC13      -27.1920    8.9310   -7.4640 H         1 LIG         0.0345
     58 HC14      -21.2380   13.1940   -7.5840 H         1 LIG         0.0638
     59 HC15      -20.9990   15.4370   -8.6020 H         1 LIG         0.0618
     60 HC16      -21.9550   15.8880  -10.8400 H         1 LIG         0.0618
     61 HC17      -23.1490   14.0960  -12.0610 H         1 LIG         0.0618
     62 HC18      -23.3870   11.8540  -11.0430 H         1 LIG         0.0638
     63 HC19      -11.0310   13.7000   -9.1430 H         1 LIG         0.0660
     64 HC20      -10.1330   13.0090   -7.7700 H         1 LIG         0.0660
     65 HC21      -11.8640   13.3880   -7.6010 H         1 LIG         0.0660
     66 HC22      -14.7910   10.6040  -10.7170 H         1 LIG         0.0660
     67 HC23      -15.3180   10.5310   -9.0180 H         1 LIG         0.0660
     68 HC24      -14.1630   11.7820   -9.5390 H         1 LIG         0.0660
@<TRIPOS>BOND
     1   61   42 1  
     2   42   43 2  
     3   42   41 1  
     4   62   43 1  
     5   60   41 1  
     6   66   25 1  
     7   43   38 1  
     8   41   40 2  
     9   53   32 1  
    10   25   68 1  
    11   25   24 1  
    12   25   67 1  
    13   24   21 1  
    14   38   31 1  
    15   38   39 2  
    16   63   23 1  
    17   56   36 1  
    18   40   59 1  
    19   40   39 1  
    20   22   23 1  
    21   22   20 1  
    22   32   29 1  
    23   32   52 1  
    24   32   35 1  
    25   31   29 1  
    26   31   33 am 
    27   39   58 1  
    28   34   33 2  
    29   29   28 2  
    30   33   26 1  
    31   23   64 1  
    32   23   65 1  
    33   55   35 1  
    34   21   20 2  
    35   21   15 1  
    36   36   35 1  
    37   36   30 1  
    38   36   57 1  
    39   28   30 1  
    40   28   27 1  
    41   35   54 1  
    42   20   17 1  
    43   26   27 2  
    44   26    3 1  
    45   30   37 2  
    46   27   51 1  
    47    1    3 2  
    48   47   15 1  
    49    3    2 am 
    50   44    7 1  
    51   15   13 2  
    52    6    7 2  
    53    6    5 1  
    54    2    4 1  
    55    2    5 1  
    56    7    8 1  
    57   17   48 1  
    58   17   14 2  
    59    5   10 2  
    60   13   14 1  
    61   13   12 1  
    62    8   11 1  
    63    8    9 2  
    64   14   16 1  
    65   10    9 1  
    66   10   46 1  
    67   11   12 1  
    68   12   19 2  
    69    9   45 1  
    70   16   18 2  
    71   19   18 1  
    72   19   50 1  
    73   18   49 1  
